Info: SIMULATION PARAMETERS:
Info: TIMESTEP               2
Info: NUMBER OF STEPS        0
Info: STEPS PER CYCLE        20
Info: PERIODIC CELL BASIS 1  100 0 0
Info: PERIODIC CELL BASIS 2  0 100 0
Info: PERIODIC CELL BASIS 3  0 0 100
Info: PERIODIC CELL CENTER   0 0 0
Info: FIRST LDB TIMESTEP     100
Info: LAST LDB TIMESTEP     -1
Info: HOM BACKGROUND SCALING 1
Info: PME BACKGROUND SCALING 1
Info: MIN ATOMS PER PATCH    40
Info: INITIAL TEMPERATURE    300
Info: CENTER OF MASS MOVING INITIALLY? NO
Info: DIELECTRIC             1
Info: EXCLUDE                SCALED ONE-FOUR
Info: 1-4 ELECTROSTATICS SCALED BY 1
Info: MODIFIED 1-4 VDW PARAMETERS WILL BE USED
Info: DCD FILENAME           C_G_G_min.dcd
Info: DCD FREQUENCY          10000
Info: DCD FIRST STEP         10000
Info: DCD FILE WILL CONTAIN UNIT CELL DATA
Info: NO EXTENDED SYSTEM TRAJECTORY OUTPUT
Info: NO VELOCITY DCD OUTPUT
Info: NO FORCE DCD OUTPUT
Info: OUTPUT FILENAME        C_G_G_min
Info: BINARY OUTPUT FILES WILL BE USED
Info: RESTART FILENAME       C_G_G_min
Info: RESTART FREQUENCY      10000
Info: BINARY RESTART FILES WILL BE USED
Info: SWITCHING ACTIVE
Info: VDW FORCE SWITCHING ACTIVE
Info: SWITCHING ON           10
Info: SWITCHING OFF          12
Info: PAIRLIST DISTANCE      16
Info: PAIRLIST SHRINK RATE   0.01
Info: PAIRLIST GROW RATE     0.01
Info: PAIRLIST TRIGGER       0.3
Info: PAIRLISTS PER CYCLE    2
Info: PAIRLISTS ENABLED
Info: MARGIN                 0.555
Info: HYDROGEN GROUP CUTOFF  2.5
Info: PATCH DIMENSION        19.055
Info: ENERGY OUTPUT STEPS    10000
Info: CROSSTERM ENERGY INCLUDED IN DIHEDRAL
Info: TIMING OUTPUT STEPS    10000
Info: LANGEVIN DYNAMICS ACTIVE
Info: LANGEVIN TEMPERATURE   300
Info: LANGEVIN USING BBK INTEGRATOR
Info: LANGEVIN DAMPING COEFFICIENT IS 1 INVERSE PS
Info: LANGEVIN DYNAMICS APPLIED TO HYDROGENS
Info: LANGEVIN PISTON PRESSURE CONTROL ACTIVE
Info:        TARGET PRESSURE IS 1.01325 BAR
Info:     OSCILLATION PERIOD IS 200 FS
Info:             DECAY TIME IS 50 FS
Info:     PISTON TEMPERATURE IS 300 K
Info:       PRESSURE CONTROL IS GROUP-BASED
Info:    INITIAL STRAIN RATE IS 0 0 0
Info:       CELL FLUCTUATION IS ISOTROPIC
Info: PARTICLE MESH EWALD (PME) ACTIVE
Info: PME TOLERANCE               1e-06
Info: PME EWALD COEFFICIENT       0.257952
Info: PME INTERPOLATION ORDER     6
Info: PME GRID DIMENSIONS         108 108 108
Info: PME MAXIMUM GRID SPACING    1
Info: FULL ELECTROSTATIC EVALUATION FREQUENCY      2
Info: USING VERLET I (r-RESPA) MTS SCHEME.
Info: C1 SPLITTING OF LONG RANGE ELECTROSTATICS
Info: PLACING ATOMS IN PATCHES BY HYDROGEN GROUPS
Info: RIGID BONDS TO HYDROGEN : ALL
Info:         ERROR TOLERANCE : 1e-08
Info:          MAX ITERATIONS : 100
Info: RIGID WATER USING SETTLE ALGORITHM
Info: RANDOM NUMBER SEED     1725045160
Info: USE HYDROGEN BONDS?    NO
Info: COORDINATE PDB         /dfs9/tw/yuanmis1/mrsec/ML-MD-Peptide/AA_template_dimer_C1/C_G_G.pdb
Info: STRUCTURE FILE         /dfs9/tw/yuanmis1/mrsec/ML-MD-Peptide/AA_template_dimer_C1/C_G_G.psf
Info: PARAMETER file: CHARMM format!
Info: PARAMETERS             /dfs9/tw/yuanmis1/mrsec/ff/toppar_c36_jul21/par_all36m_prot.prm
Info: USING ARITHMETIC MEAN TO COMBINE L-J SIGMA PARAMETERS
Info: SUMMARY OF PARAMETERS:
Info: 132 BONDS
Info: 369 ANGLES
Info: 717 DIHEDRAL
Info: 35 IMPROPER
Info: 6 CROSSTERM
Info: 54 VDW
Info: 1 VDW_PAIRS
Info: 0 NBTHOLE_PAIRS
Info: STRUCTURE SUMMARY:
Info: 54 ATOMS
Info: 53 BONDS
Info: 92 ANGLES
Info: 119 DIHEDRALS
Info: 10 IMPROPERS
Info: 2 CROSSTERMS
Info: 0 EXCLUSIONS
Info: 24 RIGID BONDS
Info: 138 DEGREES OF FREEDOM
Info: 30 HYDROGEN GROUPS
Info: 4 ATOMS IN LARGEST HYDROGEN GROUP
Info: 30 MIGRATION GROUPS
Info: 4 ATOMS IN LARGEST MIGRATION GROUP
Info: TOTAL MASS = 468.503 amu
Info: TOTAL CHARGE = 4.47035e-08 e
Info: MASS DENSITY = 0.000777986 g/cm^3
Info: ATOM DENSITY = 5.4e-05 atoms/A^3
Info: ADDED 264 IMPLICIT EXCLUSIONS
Info: NONBONDED TABLE R-SQUARED SPACING: 0.0625
Info: NONBONDED TABLE SIZE: 769 POINTS
Info: REMOVING COM VELOCITY 1.43433 -0.10361 -0.223431
TCL: Minimizing for 1000 steps
ETITLE: TS BOND ANGLE DIHED IMPRP ELECT VDW BOUNDARY MISC KINETIC TOTAL TEMP POTENTIAL TOTAL3 TEMPAVG PRESSURE GPRESSURE VOLUME PRESSAVG GPRESSAVG
ENERGY: 0 34909.7981 123.2286 29.1046 2.3940 3.5259 269.5666 0.0000 0.0000 0.0000 35337.6179 0.0000 35337.6179 35337.6179 0.0000 -1740.4108 -1746.1879 1000000.0000 -1740.4108 -1746.1879
ENERGY: 200 16.0314 105.7423 36.2196 3.2014 2.0112 2.6183 0.0000 0.0000 0.0000 165.8243 0.0000 165.8243 165.8243 0.0000 -8.3739 -10.1834 1000000.0000 -8.3739 -10.1834
ENERGY: 400 2.4053 10.3289 27.7259 3.1389 -14.4095 1.0649 0.0000 0.0000 0.0000 30.2544 0.0000 30.2544 30.2544 0.0000 0.1247 -0.9621 1000000.0000 0.1247 -0.9621
ENERGY: 600 2.1696 9.4607 21.7769 2.7538 -28.2438 1.8581 0.0000 0.0000 0.0000 9.7754 0.0000 9.7754 9.7754 0.0000 0.2496 -0.8990 1000000.0000 0.2496 -0.8990
ENERGY: 800 1.5382 12.4939 22.9360 2.8246 -61.8322 2.7909 0.0000 0.0000 0.0000 -19.2487 0.0000 -19.2487 -19.2487 0.0000 0.5895 -0.7351 1000000.0000 0.5895 -0.7351
ENERGY: 1000 2.0419 12.0497 19.1151 3.2874 -88.9736 7.6890 0.0000 0.0000 0.0000 -44.7905 0.0000 -44.7905 -44.7905 0.0000 1.6123 0.1093 1000000.0000 1.6123 0.1093
