Info: SIMULATION PARAMETERS:
Info: TIMESTEP               2
Info: NUMBER OF STEPS        0
Info: STEPS PER CYCLE        20
Info: PERIODIC CELL BASIS 1  100 0 0
Info: PERIODIC CELL BASIS 2  0 100 0
Info: PERIODIC CELL BASIS 3  0 0 100
Info: PERIODIC CELL CENTER   0 0 0
Info: FIRST LDB TIMESTEP     100
Info: LAST LDB TIMESTEP     -1
Info: HOM BACKGROUND SCALING 1
Info: PME BACKGROUND SCALING 1
Info: MIN ATOMS PER PATCH    40
Info: INITIAL TEMPERATURE    300
Info: CENTER OF MASS MOVING INITIALLY? NO
Info: DIELECTRIC             1
Info: EXCLUDE                SCALED ONE-FOUR
Info: 1-4 ELECTROSTATICS SCALED BY 1
Info: MODIFIED 1-4 VDW PARAMETERS WILL BE USED
Info: DCD FILENAME           G_C_G_min.dcd
Info: DCD FREQUENCY          10000
Info: DCD FIRST STEP         10000
Info: DCD FILE WILL CONTAIN UNIT CELL DATA
Info: NO EXTENDED SYSTEM TRAJECTORY OUTPUT
Info: NO VELOCITY DCD OUTPUT
Info: NO FORCE DCD OUTPUT
Info: OUTPUT FILENAME        G_C_G_min
Info: BINARY OUTPUT FILES WILL BE USED
Info: RESTART FILENAME       G_C_G_min
Info: RESTART FREQUENCY      10000
Info: BINARY RESTART FILES WILL BE USED
Info: SWITCHING ACTIVE
Info: VDW FORCE SWITCHING ACTIVE
Info: SWITCHING ON           10
Info: SWITCHING OFF          12
Info: PAIRLIST DISTANCE      16
Info: PAIRLIST SHRINK RATE   0.01
Info: PAIRLIST GROW RATE     0.01
Info: PAIRLIST TRIGGER       0.3
Info: PAIRLISTS PER CYCLE    2
Info: PAIRLISTS ENABLED
Info: MARGIN                 0.555
Info: HYDROGEN GROUP CUTOFF  2.5
Info: PATCH DIMENSION        19.055
Info: ENERGY OUTPUT STEPS    10000
Info: CROSSTERM ENERGY INCLUDED IN DIHEDRAL
Info: TIMING OUTPUT STEPS    10000
Info: LANGEVIN DYNAMICS ACTIVE
Info: LANGEVIN TEMPERATURE   300
Info: LANGEVIN USING BBK INTEGRATOR
Info: LANGEVIN DAMPING COEFFICIENT IS 1 INVERSE PS
Info: LANGEVIN DYNAMICS APPLIED TO HYDROGENS
Info: LANGEVIN PISTON PRESSURE CONTROL ACTIVE
Info:        TARGET PRESSURE IS 1.01325 BAR
Info:     OSCILLATION PERIOD IS 200 FS
Info:             DECAY TIME IS 50 FS
Info:     PISTON TEMPERATURE IS 300 K
Info:       PRESSURE CONTROL IS GROUP-BASED
Info:    INITIAL STRAIN RATE IS 0 0 0
Info:       CELL FLUCTUATION IS ISOTROPIC
Info: PARTICLE MESH EWALD (PME) ACTIVE
Info: PME TOLERANCE               1e-06
Info: PME EWALD COEFFICIENT       0.257952
Info: PME INTERPOLATION ORDER     6
Info: PME GRID DIMENSIONS         108 108 108
Info: PME MAXIMUM GRID SPACING    1
Info: FULL ELECTROSTATIC EVALUATION FREQUENCY      2
Info: USING VERLET I (r-RESPA) MTS SCHEME.
Info: C1 SPLITTING OF LONG RANGE ELECTROSTATICS
Info: PLACING ATOMS IN PATCHES BY HYDROGEN GROUPS
Info: RIGID BONDS TO HYDROGEN : ALL
Info:         ERROR TOLERANCE : 1e-08
Info:          MAX ITERATIONS : 100
Info: RIGID WATER USING SETTLE ALGORITHM
Info: RANDOM NUMBER SEED     1725044418
Info: USE HYDROGEN BONDS?    NO
Info: COORDINATE PDB         /dfs9/tw/yuanmis1/mrsec/ML-MD-Peptide/AA_template_dimer_C2/G_C_G.pdb
Info: STRUCTURE FILE         /dfs9/tw/yuanmis1/mrsec/ML-MD-Peptide/AA_template_dimer_C2/G_C_G.psf
Info: PARAMETER file: CHARMM format!
Info: PARAMETERS             /dfs9/tw/yuanmis1/mrsec/ff/toppar_c36_jul21/par_all36m_prot.prm
Info: USING ARITHMETIC MEAN TO COMBINE L-J SIGMA PARAMETERS
Info: SUMMARY OF PARAMETERS:
Info: 132 BONDS
Info: 369 ANGLES
Info: 717 DIHEDRAL
Info: 35 IMPROPER
Info: 6 CROSSTERM
Info: 54 VDW
Info: 1 VDW_PAIRS
Info: 0 NBTHOLE_PAIRS
Info: STRUCTURE SUMMARY:
Info: 54 ATOMS
Info: 53 BONDS
Info: 92 ANGLES
Info: 119 DIHEDRALS
Info: 10 IMPROPERS
Info: 2 CROSSTERMS
Info: 0 EXCLUSIONS
Info: 24 RIGID BONDS
Info: 138 DEGREES OF FREEDOM
Info: 30 HYDROGEN GROUPS
Info: 4 ATOMS IN LARGEST HYDROGEN GROUP
Info: 30 MIGRATION GROUPS
Info: 4 ATOMS IN LARGEST MIGRATION GROUP
Info: TOTAL MASS = 468.503 amu
Info: TOTAL CHARGE = 5.21541e-08 e
Info: MASS DENSITY = 0.000777986 g/cm^3
Info: ATOM DENSITY = 5.4e-05 atoms/A^3
Info: ADDED 264 IMPLICIT EXCLUSIONS
Info: NONBONDED TABLE R-SQUARED SPACING: 0.0625
Info: NONBONDED TABLE SIZE: 769 POINTS
Info: REMOVING COM VELOCITY 0.489095 -0.551239 2.15388
TCL: Minimizing for 1000 steps
ETITLE: TS BOND ANGLE DIHED IMPRP ELECT VDW BOUNDARY MISC KINETIC TOTAL TEMP POTENTIAL TOTAL3 TEMPAVG PRESSURE GPRESSURE VOLUME PRESSAVG GPRESSAVG
ENERGY: 0 26186.6683 27.1124 37.8902 2.3939 21.4044 0.3036 0.0000 0.0000 0.0000 26275.7727 0.0000 26275.7727 26275.7727 0.0000 -1417.2111 -1418.8960 1000000.0000 -1417.2111 -1418.8960
ENERGY: 200 50.3728 69.4920 72.1550 5.1887 1.3457 -2.0453 0.0000 0.0000 0.0000 196.5090 0.0000 196.5090 196.5090 0.0000 -25.0353 -25.5480 1000000.0000 -25.0353 -25.5480
ENERGY: 400 3.0294 11.9582 38.3450 4.2228 -24.3050 -0.6458 0.0000 0.0000 0.0000 32.6045 0.0000 32.6045 32.6045 0.0000 -2.2819 -2.6106 1000000.0000 -2.2819 -2.6106
ENERGY: 600 2.4562 13.6219 32.0697 4.3238 -69.2031 1.1297 0.0000 0.0000 0.0000 -15.6017 0.0000 -15.6017 -15.6017 0.0000 1.6551 0.8629 1000000.0000 1.6551 0.8629
ENERGY: 800 3.2037 13.9159 30.3672 4.9303 -77.4684 -1.1504 0.0000 0.0000 0.0000 -26.2017 0.0000 -26.2017 -26.2017 0.0000 0.2862 -0.4841 1000000.0000 0.2862 -0.4841
ENERGY: 1000 1.8564 12.5422 32.7856 6.0864 -103.7556 2.0964 0.0000 0.0000 0.0000 -48.3886 0.0000 -48.3886 -48.3886 0.0000 2.7708 2.3887 1000000.0000 2.7708 2.3887
